<nodes>
  <node id="0" x="0.00" y="0.00" type="priority"/>
  <node id="1" x="-100.00" y="0.00" type="priority"/>
  <node id="2" x="100.00" y="0.00" type="priority"/>
  <node id="3" x="0.00" y="-100.00" type="priority"/>
  <node id="4" x="0.00" y="100.00" type="priority"/>
</nodes>

